LAMMPS (29 Sep 2021 - Update 2)
# ----------------------- Inicialização -----------------------

units			lj
atom_style 		atomic
dimension 		3
boundary 		p p p

# -------------------- Criação dos Átomos ---------------------

read_data 		topologia.txt
Reading data file ...
  orthogonal box = (0.0000000 0.0000000 0.0000000) to (21.540000 21.540000 21.540000)
  reading atoms ...
  1000 atoms

velocity 		all create 0.57 87287 rot yes dist gaussian

# ------------------ Interação Interatômica -------------------

pair_style		table linear 1600
pair_coeff		1 1 force.table AA 8.0
pair_coeff		1 2 force.table AB 8.0
pair_coeff		2 2 force.table BB 8.0
pair_write		1 1 1600 r 0.008 8.0 table.check AA
Appending to table file table.check with DATE: 2023-07-05
  update every 1 steps, delay 10 steps, check yes
pair_write		1 2 1600 r 0.008 8.0 table.check AB
Appending to table file table.check with DATE: 2023-07-05
pair_write		2 2 1600 r 0.008 8.0 table.check BB
Appending to table file table.check with DATE: 2023-07-05

neighbor 		0.3 bin
neigh_modify		every 20 delay 0 check no

# ------------------------- Ensemble --------------------------------------

fix 1			all npt temp 0.57 0.57 0.5 iso 0.13 0.13 5

# ---------------------- Função de Distribuição Radial -----------------------

#compute RDF 		all rdf 2000 1 1 1 2 2 2
#fix 2 			all ave/time 1 2000 2000 c_RDF[*] file rdf.data mode vector

# ------------------------- Execução ---------------------------

timestep 		0.005
thermo_style		custom step temp pe ke etotal press vol atoms
thermo			2000
run			3000000
Step Temp PotEng KinEng TotEng Press Volume Atoms
0         0.57   0.18778777     0.854145    1.0419328   0.85773711    9993.9483     1000
Averages over the last 751 of 1501 rows, steps 1500000 to 3000000:
Temp PotEng KinEng TotEng Press Volume Atoms
0.570158 -2.00464 0.854382 -1.15025 0.129654 11376.5 1000
Loop time of 14372 on 1 procs for 3000000 steps with 1000 atoms
