LAMMPS (29 Sep 2021 - Update 2)
# ----------------------- Inicialização -----------------------

units			lj
atom_style 		atomic
dimension 		3
boundary 		p p p

# -------------------- Criação dos Átomos ---------------------

read_data 		topologia.txt
Reading data file ...
  orthogonal box = (0.0000000 0.0000000 0.0000000) to (21.540000 21.540000 21.540000)
  reading atoms ...
  1000 atoms

velocity 		all create 0.40 87287 rot yes dist gaussian

# ------------------ Interação Interatômica -------------------

pair_style		table linear 1300
pair_coeff		1 1 force.table AA 6.5
pair_coeff		1 2 force.table AB 6.5
pair_coeff		2 2 force.table BB 6.5
pair_write		1 1 1600 r 0.008 6.5 table.check AA
Appending to table file table.check with DATE: 2023-08-12
  update every 1 steps, delay 10 steps, check yes
pair_write		1 2 1600 r 0.008 6.5 table.check AB
Appending to table file table.check with DATE: 2023-08-12
pair_write		2 2 1600 r 0.008 6.5 table.check BB
Appending to table file table.check with DATE: 2023-08-12

neighbor 		0.3 bin
neigh_modify	every 20 delay 0 check no

# ------------------------- Ensemble --------------------------------------

fix 1			all npt temp 0.40 0.40 0.5 iso 0.13 0.13 5

# ---------------------- Função de Distribuição Radial -----------------------

compute RDF 	all rdf 2000 1 1 1 2 2 2
fix 2 			all ave/time 1 2000 2000 c_RDF[*] file rdf.data mode vector

# ------------------------- Execução ---------------------------

timestep 		0.005
thermo_style	custom step temp pe ke etotal press vol atoms
thermo			2000
run				3000000
  update every 20 steps, delay 0 steps, check no
Step Temp PotEng KinEng TotEng Press Volume Atoms
0          0.4    0.3122489       0.5994    0.9116489   0.92688796    9993.9483     1000
Averages over the last 751 of 1501 rows, steps 1500000 to 3000000:
Temp PotEng KinEng TotEng Press Volume Atoms
0.400167 -2.55883 0.59965 -1.95917 0.130037 11268.8 1000
Loop time of 1513.18 on 4 procs for 3000000 steps with 1000 atoms
