LAMMPS (29 Sep 2021 - Update 2)
# ----------------------- Inicialização -----------------------

units			lj
atom_style 		atomic
dimension 		3
boundary 		p p p

# -------------------- Criação dos Átomos ---------------------

read_data 		topologia.txt
Reading data file ...
  orthogonal box = (0.0000000 0.0000000 0.0000000) to (21.540000 21.540000 21.540000)
  reading atoms ...
  1000 atoms

velocity 		all create 0.49 87287 rot yes dist gaussian

# ------------------ Interação Interatômica -------------------

pair_style		table linear 2000
pair_coeff		1 1 force.table AA 10.0
pair_coeff		1 2 force.table AB 10.0
pair_coeff		2 2 force.table BB 10.0
pair_write		1 1 2000 r 0.008 10.0 table.check AA
Appending to table file table.check with DATE: 2023-06-17
  update every 1 steps, delay 10 steps, check yes
pair_write		1 2 2000 r 0.008 10.0 table.check AB
Appending to table file table.check with DATE: 2023-06-17
pair_write		2 2 2000 r 0.008 10.0 table.check BB
Appending to table file table.check with DATE: 2023-06-17

neighbor 		0.3 bin
neigh_modify		every 20 delay 0 check no

# ------------------------- Ensemble --------------------------------------

fix 1			all npt temp 0.49 0.49 0.5 iso 0.13 0.13 5

# ---------------------- Função de Distribuição Radial -----------------------

#compute RDF 		all rdf 2000 1 1 1 2 2 2
#fix 2 			all ave/time 1 2000 2000 c_RDF[*] file rdf.data mode vector

# ------------------------- Execução ---------------------------

timestep 		0.005
thermo_style		custom step temp pe ke etotal press vol atoms
thermo			2000
run			3000000
Step Temp PotEng KinEng TotEng Press Volume Atoms
0         0.49   0.17778918     0.734265   0.91205418   0.84795986    9993.9483     1000
Averages over the last 751 of 1501 rows, steps 1500000 to 3000000:
Temp PotEng KinEng TotEng Press Volume Atoms
0.490018 -2.21638 0.734292 -1.48209 0.129853 11286.3 1000
Loop time of 7482.15 on 1 procs for 3000000 steps with 1000 atoms
